
#######################################################################
#
#                 Cambridge Crystallographic Data Centre
#                                CCDC 
#
#######################################################################
#
# If this CIF has been generated from an entry in the Cambridge 
# Structural Database, then it will include bibliographic, chemical, 
# crystal, experimental, refinement or atomic coordinate data resulting 
# from the CCDC's data processing and validation procedures.
#
#######################################################################

data_00000001
_symmetry_cell_setting           triclinic
_symmetry_space_group_name_H-M   'P 1'
_symmetry_Int_Tables_number      1
_space_group_name_Hall           'P 1'
loop_
_symmetry_equiv_pos_site_id
_symmetry_equiv_pos_as_xyz
1 x,y,z
_cell_length_a                   8.567
_cell_length_b                   9.646
_cell_length_c                   10.318
_cell_angle_alpha                90
_cell_angle_beta                 107.31
_cell_angle_gamma                90
_cell_volume                     814.034
loop_
_atom_site_label
_atom_site_type_symbol
_atom_site_fract_x
_atom_site_fract_y
_atom_site_fract_z
C C 0.288293 0.00528717 -0.0443624
C C 0.463593 -0.0360771 0.0409109
C C 0.481512 -0.00321377 0.189936
C C 0.424735 0.143375 0.209021
C C 0.257617 0.171055 0.104561
C C 0.12954 0.0589882 0.110348
C C 0.153164 -0.054323 0.0117758
C C 0.674298 -0.0839726 0.396318
C C 0.8518 -0.102633 0.466566
C C 0.970887 -0.0514203 0.410936
C C 1.13595 -0.0724653 0.477429
C C 1.18337 -0.144827 0.599958
C C 1.06545 -0.194899 0.656909
C C 0.90026 -0.173647 0.59072
C C 0.58339 0.0388762 -0.0182728
C C 0.656462 0.0624093 -0.222827
C C 0.14298 0.217188 -0.140092
N N 0.277258 0.157267 -0.032485
O O 0.64911 -0.0258138 0.271961
O O 0.564412 -0.117251 0.443421
O O 0.688754 0.121916 0.0379669
O O 0.556998 -0.00196973 -0.148924
H H 0.271047 -0.0235331 -0.150142
H H 0.481543 -0.148041 0.0294396
H H 0.406546 -0.0781671 0.225365
H H 0.417703 0.155505 0.313176
H H 0.513295 0.218433 0.193286
H H 0.217355 0.276591 0.118266
H H 0.00536818 0.1017 0.0765429
H H 0.149298 0.0195936 0.213691
H H 0.186064 -0.156127 0.0592852
H H 0.0410708 -0.0697699 -0.0726853
H H 0.932335 0.00476882 0.315409
H H 1.22896 -0.0328634 0.434691
H H 1.31275 -0.161621 0.650919
H H 1.10435 -0.2514 0.752739
H H 0.806379 -0.213042 0.632646
H H 0.622985 0.0115074 -0.32211
H H 0.786613 0.0467551 -0.169734
H H 0.63078 0.173854 -0.235212
H H 0.161935 0.195107 -0.238664
H H 0.142633 0.330085 -0.127707
H H 0.0201217 0.177898 -0.143848
C C 0.711839 0.505391 1.04439
C C 0.536539 0.463923 0.959121
C C 0.51862 0.496786 0.810096
C C 0.575434 0.643375 0.791112
C C 0.742515 0.671055 0.895471
C C 0.870475 0.558988 0.889684
C C 0.846852 0.445677 0.988256
C C 0.325754 0.416131 0.603816
C C 0.148368 0.397367 0.533567
C C 0.0292453 0.44858 0.589096
C C -0.135822 0.427535 0.522603
C C -0.183197 0.355173 0.400175
C C -0.0654371 0.305101 0.343123
C C 0.099908 0.326353 0.409413
C C 0.416742 0.538876 1.0183
C C 0.343706 0.562409 1.22296
C C 0.857152 0.717188 1.14012
N N 0.722757 0.657267 1.03252
O O 0.351058 0.474186 0.728173
O O 0.43572 0.382749 0.556611
O O 0.311261 0.621916 0.962065
O O 0.443018 0.49803 1.14896
H H 0.729121 0.476467 1.15028
H H 0.518472 0.351959 0.970592
H H 0.593623 0.421833 0.774768
H H 0.582312 0.655505 0.686856
H H 0.486721 0.718433 0.806746
H H 0.782777 0.776591 0.881766
H H 0.994764 0.6017 0.923489
H H 0.850834 0.519594 0.786341
H H 0.814068 0.343873 0.940747
H H 0.958944 0.43023 1.07272
H H 0.0677966 0.504769 0.684622
H H -0.22883 0.467137 0.565341
H H -0.31262 0.338379 0.349113
H H -0.104214 0.2486 0.247292
H H 0.193753 0.286958 0.367386
H H 0.377147 0.511611 1.32214
H H 0.213519 0.546859 1.16977
H H 0.369352 0.673854 1.23524
H H 0.838197 0.69521 1.2387
H H 0.857382 0.830189 1.12774
H H 0.98001 0.678001 1.14388

#END
